Density calculation of q9_10901
 OpenBabel01192521383D

 17 18  0  0  1  0  0  0  0  0999 V2000
    1.3599    0.4308    1.2685 C   0  0  0  0  0  0  0  0  0  0  0  0
    0.7639   -0.1162   -0.0089 C   0  0  1  0  0  0  0  0  0  0  0  0
    1.7520   -0.3451   -1.0119 O   0  0  0  0  0  0  0  0  0  0  0  0
   -0.2165   -1.3008    0.0897 C   0  0  1  0  0  0  0  0  0  0  0  0
   -1.3958   -0.8071    0.8411 N   0  0  0  0  0  0  0  0  0  0  0  0
   -1.2822   -0.5491   -0.6170 C   0  0  1  0  0  0  0  0  0  0  0  0
   -0.4025    0.6991   -0.7099 C   0  0  1  0  0  0  0  0  0  0  0  0
   -0.8894    1.8641   -0.0995 O   0  0  0  0  0  0  0  0  0  0  0  0
    0.5925    0.5595    2.0314 H   0  0  0  0  0  0  0  0  0  0  0  0
    2.1139   -0.2578    1.6646 H   0  0  0  0  0  0  0  0  0  0  0  0
    1.8345    1.3949    1.0802 H   0  0  0  0  0  0  0  0  0  0  0  0
    2.4556   -0.8846   -0.6318 H   0  0  0  0  0  0  0  0  0  0  0  0
    0.0227   -2.3555    0.0446 H   0  0  0  0  0  0  0  0  0  0  0  0
   -2.0391   -1.5826    0.9808 H   0  0  0  0  0  0  0  0  0  0  0  0
   -2.0418   -0.8931   -1.3056 H   0  0  0  0  0  0  0  0  0  0  0  0
   -0.0991    0.9486   -1.7246 H   0  0  0  0  0  0  0  0  0  0  0  0
   -1.3045    1.5860    0.7292 H   0  0  0  0  0  0  0  0  0  0  0  0
  1  2  1  0  0  0  0
  1  9  1  0  0  0  0
  1 10  1  0  0  0  0
  1 11  1  0  0  0  0
  2  3  1  6  0  0  0
  2  4  1  0  0  0  0
  2  7  1  0  0  0  0
  3 12  1  0  0  0  0
  4  5  1  0  0  0  0
  4  6  1  0  0  0  0
  4 13  1  6  0  0  0
  5  6  1  0  0  0  0
  5 14  1  0  0  0  0
  6  7  1  0  0  0  0
  6 15  1  6  0  0  0
  7  8  1  0  0  0  0
  7 16  1  6  0  0  0
  8 17  1  0  0  0  0
M  END
